/*--------------------------------*- C++ -*----------------------------------*\
| =========                 |                                                 |
| \\      /  F ield         | OpenFOAM: The Open Source CFD Toolbox           |
|  \\    /   O peration     | Version:  2.4.0                                 |
|   \\  /    A nd           | Web:      www.OpenFOAM.org                      |
|    \\/     M anipulation  |                                                 |
\*---------------------------------------------------------------------------*/
FoamFile
{
    version     2.0;
    format      ascii;
    class       dictionary;
    location    "system";
    object      controlDict;
}
// * * * * * * * * * * * * * * * * * * * * * * * * * * * * * * * * * * * * * //

application     simpleFoam;

startFrom       latestTime;

startTime       0;

stopAt          endTime;

endTime         10000;

deltaT          1;

writeControl    runTime;

writeInterval   100;

purgeWrite      1;

writeFormat     ascii;

writePrecision  6;

writeCompression off;

timeFormat      general;

timePrecision   6;

runTimeModifiable true;

functions
{   
    forceCoeffs
    {
        type                forceCoeffs;
        functionObjectLibs  ("libforces.so");
        outputControl       timeStep;
        outputInterval      1;
     
        patches             ("airfoil.*");
        pName               p;
        UName               U;
        rhoName             rhoInf;
        log                 true;
         
        liftDir             (0 0 1);
        dragDir             (1 0 0);
        CofR                (0.25 0 0);
        pitchAxis           (0 1 0);
         
        magUInf             1.0;
        rhoInf              1000;
        lRef                1;
        Aref                1;
    }
}


// ************************************************************************* //
