/*--------------------------------*- C++ -*----------------------------------*\
| =========                 |                                                 |
| \\      /  F ield         | OpenFOAM: The Open Source CFD Toolbox           |
|  \\    /   O peration     | Version:  2.4.0                                 |
|   \\  /    A nd           | Web:      www.OpenFOAM.org                      |
|    \\/     M anipulation  |                                                 |
\*---------------------------------------------------------------------------*/
FoamFile
{
    version     2.0;
    format      ascii;
    class       dictionary;
    location    "system";
    object      controlDict;
}
// * * * * * * * * * * * * * * * * * * * * * * * * * * * * * * * * * * * * * //

application     simpleFoam;

startFrom       startTime;

startTime       0;

stopAt          endTime;

endTime         500;

deltaT          1;

writeControl    timeStep;

writeInterval   50;

purgeWrite      1;

writeFormat     ascii;

writePrecision  6;

writeCompression off;

timeFormat      general;

timePrecision   6;

runTimeModifiable true;

functions
{
    forceCoeffs
    {
        type                forceCoeffs;
        libs                ("libforces.so");
        writeControl        timeStep;
        writeInterval       1;
        patches             ("airfoil.*");
        rho                 rhoInf;
        log                 true;
        liftDir             (0 0 1);
        dragDir             (1 0 0);
        CofR                (0 0 0);
        pitchAxis           (0 1 0);
        magUInf             1.0;
        rhoInf              1000;
        lRef                1;
        Aref                1;
    }

    fieldAverage
    {
        type            fieldAverage;
        libs            ("libfieldFunctionObjects.so");
        enabled         true;
        timeStart       10;
        writeControl    outputTime;
        resetOnRestart  true;
        resetOnOutput   false;

        fields
        (
            nut
            {
                mean        on;
                prime2Mean  off;
                base        time;
            }

            k
            {
                mean        on;
                prime2Mean  off;
                base        time;
            }

            omega
            {
                mean        on;
                prime2Mean  off;
                base        time;
            }
        );
    }

    yPlus
    {
        type            yPlus;
        libs            (fieldFunctionObjects);
        writePrecision  8;
        writeToFile     true;
        useUserTime     true;
        enabled         true;
        log             true;
        executeControl  writeTime;
        writeControl    writeTime;
    }
}


// ************************************************************************* //
